<?xml version="1.0" encoding="UTF-8"?>
<!DOCTYPE population SYSTEM "http://www.matsim.org/files/dtd/population_v6.dtd">
<population>
  <person id="tesla_1">
    <attributes>
    <attribute name="betaMoney" class="java.lang.Double">-3.0000</attribute>
    <attribute name="riskAttitude" class="java.lang.String">seeking</attribute>
    <attribute name="rangeAnxietyThreshold" class="java.lang.Double">0.15</attribute>
    <attribute name="hh_income_detailed" class="java.lang.Integer">7</attribute>
    <attribute name="home_type" class="java.lang.String">1</attribute>
    <attribute name="employment_status" class="java.lang.Integer">0</attribute>
    <attribute name="homeChargerPower" class="java.lang.Double">7.2</attribute>
    </attributes>
    <plan selected="yes">
      <activity type="home" link="f0" x="200000.0" y="100000.0" end_time="08:00:00"/>
      <leg mode="car">
        <route type="links" start_link="f0" end_link="f19" trav_time="00:35:59" distance="60000.0">f0 f1 f2 f3 f4 f5 f6 f7 f8 f9 f10 f11 f12 f13 f14 f15 f16 f17 f18 f19</route>
      </leg>
      <activity type="work" link="f19" x="260000.0" y="100000.0" end_time="17:00:00"/>
      <leg mode="car">
        <route type="links" start_link="f19" end_link="b19" trav_time="00:35:59" distance="60000.0">b0 b1 b2 b3 b4 b5 b6 b7 b8 b9 b10 b11 b12 b13 b14 b15 b16 b17 b18 b19</route>
      </leg>
      <activity type="home" link="f0" x="200000.0" y="100000.0"/>
    </plan>
  </person>
  <person id="tesla_2">
    <attributes>
    <attribute name="betaMoney" class="java.lang.Double">-3.0000</attribute>
    <attribute name="riskAttitude" class="java.lang.String">seeking</attribute>
    <attribute name="rangeAnxietyThreshold" class="java.lang.Double">0.15</attribute>
    <attribute name="hh_income_detailed" class="java.lang.Integer">7</attribute>
    <attribute name="home_type" class="java.lang.String">1</attribute>
    <attribute name="employment_status" class="java.lang.Integer">0</attribute>
    <attribute name="homeChargerPower" class="java.lang.Double">7.2</attribute>
    </attributes>
    <plan selected="yes">
      <activity type="home" link="f0" x="200000.0" y="100000.0" end_time="08:00:00"/>
      <leg mode="car">
        <route type="links" start_link="f0" end_link="f19" trav_time="00:35:59" distance="60000.0">f0 f1 f2 f3 f4 f5 f6 f7 f8 f9 f10 f11 f12 f13 f14 f15 f16 f17 f18 f19</route>
      </leg>
      <activity type="work" link="f19" x="260000.0" y="100000.0" end_time="17:00:00"/>
      <leg mode="car">
        <route type="links" start_link="f19" end_link="b19" trav_time="00:35:59" distance="60000.0">b0 b1 b2 b3 b4 b5 b6 b7 b8 b9 b10 b11 b12 b13 b14 b15 b16 b17 b18 b19</route>
      </leg>
      <activity type="home" link="f0" x="200000.0" y="100000.0"/>
    </plan>
  </person>
  <person id="tesla_3">
    <attributes>
    <attribute name="betaMoney" class="java.lang.Double">-3.0000</attribute>
    <attribute name="riskAttitude" class="java.lang.String">seeking</attribute>
    <attribute name="rangeAnxietyThreshold" class="java.lang.Double">0.15</attribute>
    <attribute name="hh_income_detailed" class="java.lang.Integer">7</attribute>
    <attribute name="home_type" class="java.lang.String">1</attribute>
    <attribute name="employment_status" class="java.lang.Integer">0</attribute>
    <attribute name="homeChargerPower" class="java.lang.Double">7.2</attribute>
    </attributes>
    <plan selected="yes">
      <activity type="home" link="f0" x="200000.0" y="100000.0" end_time="08:00:00"/>
      <leg mode="car">
        <route type="links" start_link="f0" end_link="f19" trav_time="00:35:59" distance="60000.0">f0 f1 f2 f3 f4 f5 f6 f7 f8 f9 f10 f11 f12 f13 f14 f15 f16 f17 f18 f19</route>
      </leg>
      <activity type="work" link="f19" x="260000.0" y="100000.0" end_time="17:00:00"/>
      <leg mode="car">
        <route type="links" start_link="f19" end_link="b19" trav_time="00:35:59" distance="60000.0">b0 b1 b2 b3 b4 b5 b6 b7 b8 b9 b10 b11 b12 b13 b14 b15 b16 b17 b18 b19</route>
      </leg>
      <activity type="home" link="f0" x="200000.0" y="100000.0"/>
    </plan>
  </person>
  <person id="tesla_4">
    <attributes>
    <attribute name="betaMoney" class="java.lang.Double">-3.0000</attribute>
    <attribute name="riskAttitude" class="java.lang.String">seeking</attribute>
    <attribute name="rangeAnxietyThreshold" class="java.lang.Double">0.15</attribute>
    <attribute name="hh_income_detailed" class="java.lang.Integer">7</attribute>
    <attribute name="home_type" class="java.lang.String">1</attribute>
    <attribute name="employment_status" class="java.lang.Integer">0</attribute>
    <attribute name="homeChargerPower" class="java.lang.Double">7.2</attribute>
    </attributes>
    <plan selected="yes">
      <activity type="home" link="f0" x="200000.0" y="100000.0" end_time="08:00:00"/>
      <leg mode="car">
        <route type="links" start_link="f0" end_link="f19" trav_time="00:35:59" distance="60000.0">f0 f1 f2 f3 f4 f5 f6 f7 f8 f9 f10 f11 f12 f13 f14 f15 f16 f17 f18 f19</route>
      </leg>
      <activity type="work" link="f19" x="260000.0" y="100000.0" end_time="17:00:00"/>
      <leg mode="car">
        <route type="links" start_link="f19" end_link="b19" trav_time="00:35:59" distance="60000.0">b0 b1 b2 b3 b4 b5 b6 b7 b8 b9 b10 b11 b12 b13 b14 b15 b16 b17 b18 b19</route>
      </leg>
      <activity type="home" link="f0" x="200000.0" y="100000.0"/>
    </plan>
  </person>
  <person id="tesla_5">
    <attributes>
    <attribute name="betaMoney" class="java.lang.Double">-3.0000</attribute>
    <attribute name="riskAttitude" class="java.lang.String">seeking</attribute>
    <attribute name="rangeAnxietyThreshold" class="java.lang.Double">0.15</attribute>
    <attribute name="hh_income_detailed" class="java.lang.Integer">7</attribute>
    <attribute name="home_type" class="java.lang.String">1</attribute>
    <attribute name="employment_status" class="java.lang.Integer">0</attribute>
    <attribute name="homeChargerPower" class="java.lang.Double">7.2</attribute>
    </attributes>
    <plan selected="yes">
      <activity type="home" link="f0" x="200000.0" y="100000.0" end_time="08:00:00"/>
      <leg mode="car">
        <route type="links" start_link="f0" end_link="f19" trav_time="00:35:59" distance="60000.0">f0 f1 f2 f3 f4 f5 f6 f7 f8 f9 f10 f11 f12 f13 f14 f15 f16 f17 f18 f19</route>
      </leg>
      <activity type="work" link="f19" x="260000.0" y="100000.0" end_time="17:00:00"/>
      <leg mode="car">
        <route type="links" start_link="f19" end_link="b19" trav_time="00:35:59" distance="60000.0">b0 b1 b2 b3 b4 b5 b6 b7 b8 b9 b10 b11 b12 b13 b14 b15 b16 b17 b18 b19</route>
      </leg>
      <activity type="home" link="f0" x="200000.0" y="100000.0"/>
    </plan>
  </person>
  <person id="tesla_6">
    <attributes>
    <attribute name="betaMoney" class="java.lang.Double">-3.0000</attribute>
    <attribute name="riskAttitude" class="java.lang.String">seeking</attribute>
    <attribute name="rangeAnxietyThreshold" class="java.lang.Double">0.15</attribute>
    <attribute name="hh_income_detailed" class="java.lang.Integer">7</attribute>
    <attribute name="home_type" class="java.lang.String">1</attribute>
    <attribute name="employment_status" class="java.lang.Integer">0</attribute>
    <attribute name="homeChargerPower" class="java.lang.Double">7.2</attribute>
    </attributes>
    <plan selected="yes">
      <activity type="home" link="f0" x="200000.0" y="100000.0" end_time="08:00:00"/>
      <leg mode="car">
        <route type="links" start_link="f0" end_link="f19" trav_time="00:35:59" distance="60000.0">f0 f1 f2 f3 f4 f5 f6 f7 f8 f9 f10 f11 f12 f13 f14 f15 f16 f17 f18 f19</route>
      </leg>
      <activity type="work" link="f19" x="260000.0" y="100000.0" end_time="17:00:00"/>
      <leg mode="car">
        <route type="links" start_link="f19" end_link="b19" trav_time="00:35:59" distance="60000.0">b0 b1 b2 b3 b4 b5 b6 b7 b8 b9 b10 b11 b12 b13 b14 b15 b16 b17 b18 b19</route>
      </leg>
      <activity type="home" link="f0" x="200000.0" y="100000.0"/>
    </plan>
  </person>
  <person id="tesla_7">
    <attributes>
    <attribute name="betaMoney" class="java.lang.Double">-3.0000</attribute>
    <attribute name="riskAttitude" class="java.lang.String">seeking</attribute>
    <attribute name="rangeAnxietyThreshold" class="java.lang.Double">0.15</attribute>
    <attribute name="hh_income_detailed" class="java.lang.Integer">7</attribute>
    <attribute name="home_type" class="java.lang.String">1</attribute>
    <attribute name="employment_status" class="java.lang.Integer">0</attribute>
    <attribute name="homeChargerPower" class="java.lang.Double">7.2</attribute>
    </attributes>
    <plan selected="yes">
      <activity type="home" link="f0" x="200000.0" y="100000.0" end_time="08:00:00"/>
      <leg mode="car">
        <route type="links" start_link="f0" end_link="f19" trav_time="00:35:59" distance="60000.0">f0 f1 f2 f3 f4 f5 f6 f7 f8 f9 f10 f11 f12 f13 f14 f15 f16 f17 f18 f19</route>
      </leg>
      <activity type="work" link="f19" x="260000.0" y="100000.0" end_time="17:00:00"/>
      <leg mode="car">
        <route type="links" start_link="f19" end_link="b19" trav_time="00:35:59" distance="60000.0">b0 b1 b2 b3 b4 b5 b6 b7 b8 b9 b10 b11 b12 b13 b14 b15 b16 b17 b18 b19</route>
      </leg>
      <activity type="home" link="f0" x="200000.0" y="100000.0"/>
    </plan>
  </person>
  <person id="tesla_8">
    <attributes>
    <attribute name="betaMoney" class="java.lang.Double">-3.0000</attribute>
    <attribute name="riskAttitude" class="java.lang.String">seeking</attribute>
    <attribute name="rangeAnxietyThreshold" class="java.lang.Double">0.15</attribute>
    <attribute name="hh_income_detailed" class="java.lang.Integer">7</attribute>
    <attribute name="home_type" class="java.lang.String">1</attribute>
    <attribute name="employment_status" class="java.lang.Integer">0</attribute>
    <attribute name="homeChargerPower" class="java.lang.Double">7.2</attribute>
    </attributes>
    <plan selected="yes">
      <activity type="home" link="f0" x="200000.0" y="100000.0" end_time="08:00:00"/>
      <leg mode="car">
        <route type="links" start_link="f0" end_link="f19" trav_time="00:35:59" distance="60000.0">f0 f1 f2 f3 f4 f5 f6 f7 f8 f9 f10 f11 f12 f13 f14 f15 f16 f17 f18 f19</route>
      </leg>
      <activity type="work" link="f19" x="260000.0" y="100000.0" end_time="17:00:00"/>
      <leg mode="car">
        <route type="links" start_link="f19" end_link="b19" trav_time="00:35:59" distance="60000.0">b0 b1 b2 b3 b4 b5 b6 b7 b8 b9 b10 b11 b12 b13 b14 b15 b16 b17 b18 b19</route>
      </leg>
      <activity type="home" link="f0" x="200000.0" y="100000.0"/>
    </plan>
  </person>
  <person id="tesla_9">
    <attributes>
    <attribute name="betaMoney" class="java.lang.Double">-3.0000</attribute>
    <attribute name="riskAttitude" class="java.lang.String">seeking</attribute>
    <attribute name="rangeAnxietyThreshold" class="java.lang.Double">0.15</attribute>
    <attribute name="hh_income_detailed" class="java.lang.Integer">7</attribute>
    <attribute name="home_type" class="java.lang.String">1</attribute>
    <attribute name="employment_status" class="java.lang.Integer">0</attribute>
    <attribute name="homeChargerPower" class="java.lang.Double">7.2</attribute>
    </attributes>
    <plan selected="yes">
      <activity type="home" link="f0" x="200000.0" y="100000.0" end_time="08:00:00"/>
      <leg mode="car">
        <route type="links" start_link="f0" end_link="f19" trav_time="00:35:59" distance="60000.0">f0 f1 f2 f3 f4 f5 f6 f7 f8 f9 f10 f11 f12 f13 f14 f15 f16 f17 f18 f19</route>
      </leg>
      <activity type="work" link="f19" x="260000.0" y="100000.0" end_time="17:00:00"/>
      <leg mode="car">
        <route type="links" start_link="f19" end_link="b19" trav_time="00:35:59" distance="60000.0">b0 b1 b2 b3 b4 b5 b6 b7 b8 b9 b10 b11 b12 b13 b14 b15 b16 b17 b18 b19</route>
      </leg>
      <activity type="home" link="f0" x="200000.0" y="100000.0"/>
    </plan>
  </person>
  <person id="tesla_10">
    <attributes>
    <attribute name="betaMoney" class="java.lang.Double">-3.0000</attribute>
    <attribute name="riskAttitude" class="java.lang.String">seeking</attribute>
    <attribute name="rangeAnxietyThreshold" class="java.lang.Double">0.15</attribute>
    <attribute name="hh_income_detailed" class="java.lang.Integer">7</attribute>
    <attribute name="home_type" class="java.lang.String">1</attribute>
    <attribute name="employment_status" class="java.lang.Integer">0</attribute>
    <attribute name="homeChargerPower" class="java.lang.Double">7.2</attribute>
    </attributes>
    <plan selected="yes">
      <activity type="home" link="f0" x="200000.0" y="100000.0" end_time="08:00:00"/>
      <leg mode="car">
        <route type="links" start_link="f0" end_link="f19" trav_time="00:35:59" distance="60000.0">f0 f1 f2 f3 f4 f5 f6 f7 f8 f9 f10 f11 f12 f13 f14 f15 f16 f17 f18 f19</route>
      </leg>
      <activity type="work" link="f19" x="260000.0" y="100000.0" end_time="17:00:00"/>
      <leg mode="car">
        <route type="links" start_link="f19" end_link="b19" trav_time="00:35:59" distance="60000.0">b0 b1 b2 b3 b4 b5 b6 b7 b8 b9 b10 b11 b12 b13 b14 b15 b16 b17 b18 b19</route>
      </leg>
      <activity type="home" link="f0" x="200000.0" y="100000.0"/>
    </plan>
  </person>
  <person id="leaf_hi_1">
    <attributes>
    <attribute name="betaMoney" class="java.lang.Double">-3.0000</attribute>
    <attribute name="riskAttitude" class="java.lang.String">averse</attribute>
    <attribute name="rangeAnxietyThreshold" class="java.lang.Double">0.25</attribute>
    <attribute name="hh_income_detailed" class="java.lang.Integer">7</attribute>
    <attribute name="home_type" class="java.lang.String">1</attribute>
    <attribute name="employment_status" class="java.lang.Integer">1</attribute>
    <attribute name="homeChargerPower" class="java.lang.Double">7.2</attribute>
    </attributes>
    <plan selected="yes">
      <activity type="home" link="f0" x="200000.0" y="100000.0" end_time="08:00:00"/>
      <leg mode="car">
        <route type="links" start_link="f0" end_link="f19" trav_time="00:35:59" distance="60000.0">f0 f1 f2 f3 f4 f5 f6 f7 f8 f9 f10 f11 f12 f13 f14 f15 f16 f17 f18 f19</route>
      </leg>
      <activity type="work" link="f19" x="260000.0" y="100000.0" end_time="17:00:00"/>
      <leg mode="car">
        <route type="links" start_link="f19" end_link="b19" trav_time="00:35:59" distance="60000.0">b0 b1 b2 b3 b4 b5 b6 b7 b8 b9 b10 b11 b12 b13 b14 b15 b16 b17 b18 b19</route>
      </leg>
      <activity type="home" link="f0" x="200000.0" y="100000.0"/>
    </plan>
  </person>
  <person id="leaf_hi_2">
    <attributes>
    <attribute name="betaMoney" class="java.lang.Double">-3.0000</attribute>
    <attribute name="riskAttitude" class="java.lang.String">averse</attribute>
    <attribute name="rangeAnxietyThreshold" class="java.lang.Double">0.25</attribute>
    <attribute name="hh_income_detailed" class="java.lang.Integer">7</attribute>
    <attribute name="home_type" class="java.lang.String">1</attribute>
    <attribute name="employment_status" class="java.lang.Integer">1</attribute>
    <attribute name="homeChargerPower" class="java.lang.Double">7.2</attribute>
    </attributes>
    <plan selected="yes">
      <activity type="home" link="f0" x="200000.0" y="100000.0" end_time="08:00:00"/>
      <leg mode="car">
        <route type="links" start_link="f0" end_link="f19" trav_time="00:35:59" distance="60000.0">f0 f1 f2 f3 f4 f5 f6 f7 f8 f9 f10 f11 f12 f13 f14 f15 f16 f17 f18 f19</route>
      </leg>
      <activity type="work" link="f19" x="260000.0" y="100000.0" end_time="17:00:00"/>
      <leg mode="car">
        <route type="links" start_link="f19" end_link="b19" trav_time="00:35:59" distance="60000.0">b0 b1 b2 b3 b4 b5 b6 b7 b8 b9 b10 b11 b12 b13 b14 b15 b16 b17 b18 b19</route>
      </leg>
      <activity type="home" link="f0" x="200000.0" y="100000.0"/>
    </plan>
  </person>
  <person id="leaf_hi_3">
    <attributes>
    <attribute name="betaMoney" class="java.lang.Double">-3.0000</attribute>
    <attribute name="riskAttitude" class="java.lang.String">averse</attribute>
    <attribute name="rangeAnxietyThreshold" class="java.lang.Double">0.25</attribute>
    <attribute name="hh_income_detailed" class="java.lang.Integer">7</attribute>
    <attribute name="home_type" class="java.lang.String">1</attribute>
    <attribute name="employment_status" class="java.lang.Integer">1</attribute>
    <attribute name="homeChargerPower" class="java.lang.Double">7.2</attribute>
    </attributes>
    <plan selected="yes">
      <activity type="home" link="f0" x="200000.0" y="100000.0" end_time="08:00:00"/>
      <leg mode="car">
        <route type="links" start_link="f0" end_link="f19" trav_time="00:35:59" distance="60000.0">f0 f1 f2 f3 f4 f5 f6 f7 f8 f9 f10 f11 f12 f13 f14 f15 f16 f17 f18 f19</route>
      </leg>
      <activity type="work" link="f19" x="260000.0" y="100000.0" end_time="17:00:00"/>
      <leg mode="car">
        <route type="links" start_link="f19" end_link="b19" trav_time="00:35:59" distance="60000.0">b0 b1 b2 b3 b4 b5 b6 b7 b8 b9 b10 b11 b12 b13 b14 b15 b16 b17 b18 b19</route>
      </leg>
      <activity type="home" link="f0" x="200000.0" y="100000.0"/>
    </plan>
  </person>
  <person id="leaf_hi_4">
    <attributes>
    <attribute name="betaMoney" class="java.lang.Double">-3.0000</attribute>
    <attribute name="riskAttitude" class="java.lang.String">averse</attribute>
    <attribute name="rangeAnxietyThreshold" class="java.lang.Double">0.25</attribute>
    <attribute name="hh_income_detailed" class="java.lang.Integer">7</attribute>
    <attribute name="home_type" class="java.lang.String">1</attribute>
    <attribute name="employment_status" class="java.lang.Integer">1</attribute>
    <attribute name="homeChargerPower" class="java.lang.Double">7.2</attribute>
    </attributes>
    <plan selected="yes">
      <activity type="home" link="f0" x="200000.0" y="100000.0" end_time="08:00:00"/>
      <leg mode="car">
        <route type="links" start_link="f0" end_link="f19" trav_time="00:35:59" distance="60000.0">f0 f1 f2 f3 f4 f5 f6 f7 f8 f9 f10 f11 f12 f13 f14 f15 f16 f17 f18 f19</route>
      </leg>
      <activity type="work" link="f19" x="260000.0" y="100000.0" end_time="17:00:00"/>
      <leg mode="car">
        <route type="links" start_link="f19" end_link="b19" trav_time="00:35:59" distance="60000.0">b0 b1 b2 b3 b4 b5 b6 b7 b8 b9 b10 b11 b12 b13 b14 b15 b16 b17 b18 b19</route>
      </leg>
      <activity type="home" link="f0" x="200000.0" y="100000.0"/>
    </plan>
  </person>
  <person id="leaf_hi_5">
    <attributes>
    <attribute name="betaMoney" class="java.lang.Double">-3.0000</attribute>
    <attribute name="riskAttitude" class="java.lang.String">averse</attribute>
    <attribute name="rangeAnxietyThreshold" class="java.lang.Double">0.25</attribute>
    <attribute name="hh_income_detailed" class="java.lang.Integer">7</attribute>
    <attribute name="home_type" class="java.lang.String">1</attribute>
    <attribute name="employment_status" class="java.lang.Integer">1</attribute>
    <attribute name="homeChargerPower" class="java.lang.Double">7.2</attribute>
    </attributes>
    <plan selected="yes">
      <activity type="home" link="f0" x="200000.0" y="100000.0" end_time="08:00:00"/>
      <leg mode="car">
        <route type="links" start_link="f0" end_link="f19" trav_time="00:35:59" distance="60000.0">f0 f1 f2 f3 f4 f5 f6 f7 f8 f9 f10 f11 f12 f13 f14 f15 f16 f17 f18 f19</route>
      </leg>
      <activity type="work" link="f19" x="260000.0" y="100000.0" end_time="17:00:00"/>
      <leg mode="car">
        <route type="links" start_link="f19" end_link="b19" trav_time="00:35:59" distance="60000.0">b0 b1 b2 b3 b4 b5 b6 b7 b8 b9 b10 b11 b12 b13 b14 b15 b16 b17 b18 b19</route>
      </leg>
      <activity type="home" link="f0" x="200000.0" y="100000.0"/>
    </plan>
  </person>
  <person id="leaf_hi_6">
    <attributes>
    <attribute name="betaMoney" class="java.lang.Double">-3.0000</attribute>
    <attribute name="riskAttitude" class="java.lang.String">averse</attribute>
    <attribute name="rangeAnxietyThreshold" class="java.lang.Double">0.25</attribute>
    <attribute name="hh_income_detailed" class="java.lang.Integer">7</attribute>
    <attribute name="home_type" class="java.lang.String">1</attribute>
    <attribute name="employment_status" class="java.lang.Integer">1</attribute>
    <attribute name="homeChargerPower" class="java.lang.Double">7.2</attribute>
    </attributes>
    <plan selected="yes">
      <activity type="home" link="f0" x="200000.0" y="100000.0" end_time="08:00:00"/>
      <leg mode="car">
        <route type="links" start_link="f0" end_link="f19" trav_time="00:35:59" distance="60000.0">f0 f1 f2 f3 f4 f5 f6 f7 f8 f9 f10 f11 f12 f13 f14 f15 f16 f17 f18 f19</route>
      </leg>
      <activity type="work" link="f19" x="260000.0" y="100000.0" end_time="17:00:00"/>
      <leg mode="car">
        <route type="links" start_link="f19" end_link="b19" trav_time="00:35:59" distance="60000.0">b0 b1 b2 b3 b4 b5 b6 b7 b8 b9 b10 b11 b12 b13 b14 b15 b16 b17 b18 b19</route>
      </leg>
      <activity type="home" link="f0" x="200000.0" y="100000.0"/>
    </plan>
  </person>
  <person id="leaf_hi_7">
    <attributes>
    <attribute name="betaMoney" class="java.lang.Double">-3.0000</attribute>
    <attribute name="riskAttitude" class="java.lang.String">averse</attribute>
    <attribute name="rangeAnxietyThreshold" class="java.lang.Double">0.25</attribute>
    <attribute name="hh_income_detailed" class="java.lang.Integer">7</attribute>
    <attribute name="home_type" class="java.lang.String">1</attribute>
    <attribute name="employment_status" class="java.lang.Integer">1</attribute>
    <attribute name="homeChargerPower" class="java.lang.Double">7.2</attribute>
    </attributes>
    <plan selected="yes">
      <activity type="home" link="f0" x="200000.0" y="100000.0" end_time="08:00:00"/>
      <leg mode="car">
        <route type="links" start_link="f0" end_link="f19" trav_time="00:35:59" distance="60000.0">f0 f1 f2 f3 f4 f5 f6 f7 f8 f9 f10 f11 f12 f13 f14 f15 f16 f17 f18 f19</route>
      </leg>
      <activity type="work" link="f19" x="260000.0" y="100000.0" end_time="17:00:00"/>
      <leg mode="car">
        <route type="links" start_link="f19" end_link="b19" trav_time="00:35:59" distance="60000.0">b0 b1 b2 b3 b4 b5 b6 b7 b8 b9 b10 b11 b12 b13 b14 b15 b16 b17 b18 b19</route>
      </leg>
      <activity type="home" link="f0" x="200000.0" y="100000.0"/>
    </plan>
  </person>
  <person id="leaf_hi_8">
    <attributes>
    <attribute name="betaMoney" class="java.lang.Double">-3.0000</attribute>
    <attribute name="riskAttitude" class="java.lang.String">averse</attribute>
    <attribute name="rangeAnxietyThreshold" class="java.lang.Double">0.25</attribute>
    <attribute name="hh_income_detailed" class="java.lang.Integer">7</attribute>
    <attribute name="home_type" class="java.lang.String">1</attribute>
    <attribute name="employment_status" class="java.lang.Integer">1</attribute>
    <attribute name="homeChargerPower" class="java.lang.Double">7.2</attribute>
    </attributes>
    <plan selected="yes">
      <activity type="home" link="f0" x="200000.0" y="100000.0" end_time="08:00:00"/>
      <leg mode="car">
        <route type="links" start_link="f0" end_link="f19" trav_time="00:35:59" distance="60000.0">f0 f1 f2 f3 f4 f5 f6 f7 f8 f9 f10 f11 f12 f13 f14 f15 f16 f17 f18 f19</route>
      </leg>
      <activity type="work" link="f19" x="260000.0" y="100000.0" end_time="17:00:00"/>
      <leg mode="car">
        <route type="links" start_link="f19" end_link="b19" trav_time="00:35:59" distance="60000.0">b0 b1 b2 b3 b4 b5 b6 b7 b8 b9 b10 b11 b12 b13 b14 b15 b16 b17 b18 b19</route>
      </leg>
      <activity type="home" link="f0" x="200000.0" y="100000.0"/>
    </plan>
  </person>
  <person id="leaf_hi_9">
    <attributes>
    <attribute name="betaMoney" class="java.lang.Double">-3.0000</attribute>
    <attribute name="riskAttitude" class="java.lang.String">averse</attribute>
    <attribute name="rangeAnxietyThreshold" class="java.lang.Double">0.25</attribute>
    <attribute name="hh_income_detailed" class="java.lang.Integer">7</attribute>
    <attribute name="home_type" class="java.lang.String">1</attribute>
    <attribute name="employment_status" class="java.lang.Integer">1</attribute>
    <attribute name="homeChargerPower" class="java.lang.Double">7.2</attribute>
    </attributes>
    <plan selected="yes">
      <activity type="home" link="f0" x="200000.0" y="100000.0" end_time="08:00:00"/>
      <leg mode="car">
        <route type="links" start_link="f0" end_link="f19" trav_time="00:35:59" distance="60000.0">f0 f1 f2 f3 f4 f5 f6 f7 f8 f9 f10 f11 f12 f13 f14 f15 f16 f17 f18 f19</route>
      </leg>
      <activity type="work" link="f19" x="260000.0" y="100000.0" end_time="17:00:00"/>
      <leg mode="car">
        <route type="links" start_link="f19" end_link="b19" trav_time="00:35:59" distance="60000.0">b0 b1 b2 b3 b4 b5 b6 b7 b8 b9 b10 b11 b12 b13 b14 b15 b16 b17 b18 b19</route>
      </leg>
      <activity type="home" link="f0" x="200000.0" y="100000.0"/>
    </plan>
  </person>
  <person id="leaf_hi_10">
    <attributes>
    <attribute name="betaMoney" class="java.lang.Double">-3.0000</attribute>
    <attribute name="riskAttitude" class="java.lang.String">averse</attribute>
    <attribute name="rangeAnxietyThreshold" class="java.lang.Double">0.25</attribute>
    <attribute name="hh_income_detailed" class="java.lang.Integer">7</attribute>
    <attribute name="home_type" class="java.lang.String">1</attribute>
    <attribute name="employment_status" class="java.lang.Integer">1</attribute>
    <attribute name="homeChargerPower" class="java.lang.Double">7.2</attribute>
    </attributes>
    <plan selected="yes">
      <activity type="home" link="f0" x="200000.0" y="100000.0" end_time="08:00:00"/>
      <leg mode="car">
        <route type="links" start_link="f0" end_link="f19" trav_time="00:35:59" distance="60000.0">f0 f1 f2 f3 f4 f5 f6 f7 f8 f9 f10 f11 f12 f13 f14 f15 f16 f17 f18 f19</route>
      </leg>
      <activity type="work" link="f19" x="260000.0" y="100000.0" end_time="17:00:00"/>
      <leg mode="car">
        <route type="links" start_link="f19" end_link="b19" trav_time="00:35:59" distance="60000.0">b0 b1 b2 b3 b4 b5 b6 b7 b8 b9 b10 b11 b12 b13 b14 b15 b16 b17 b18 b19</route>
      </leg>
      <activity type="home" link="f0" x="200000.0" y="100000.0"/>
    </plan>
  </person>
  <person id="mf_apt_1">
    <attributes>
    <attribute name="betaMoney" class="java.lang.Double">-8.8235</attribute>
    <attribute name="riskAttitude" class="java.lang.String">seeking</attribute>
    <attribute name="rangeAnxietyThreshold" class="java.lang.Double">0.15</attribute>
    <attribute name="hh_income_detailed" class="java.lang.Integer">4</attribute>
    <attribute name="home_type" class="java.lang.String">4</attribute>
    <attribute name="employment_status" class="java.lang.Integer">0</attribute>
    </attributes>
    <plan selected="yes">
      <activity type="home" link="f0" x="200000.0" y="100000.0" end_time="08:00:00"/>
      <leg mode="car">
        <route type="links" start_link="f0" end_link="f19" trav_time="00:35:59" distance="60000.0">f0 f1 f2 f3 f4 f5 f6 f7 f8 f9 f10 f11 f12 f13 f14 f15 f16 f17 f18 f19</route>
      </leg>
      <activity type="work" link="f19" x="260000.0" y="100000.0" end_time="17:00:00"/>
      <leg mode="car">
        <route type="links" start_link="f19" end_link="b19" trav_time="00:35:59" distance="60000.0">b0 b1 b2 b3 b4 b5 b6 b7 b8 b9 b10 b11 b12 b13 b14 b15 b16 b17 b18 b19</route>
      </leg>
      <activity type="home" link="f0" x="200000.0" y="100000.0"/>
    </plan>
  </person>
  <person id="mf_apt_2">
    <attributes>
    <attribute name="betaMoney" class="java.lang.Double">-8.8235</attribute>
    <attribute name="riskAttitude" class="java.lang.String">seeking</attribute>
    <attribute name="rangeAnxietyThreshold" class="java.lang.Double">0.15</attribute>
    <attribute name="hh_income_detailed" class="java.lang.Integer">4</attribute>
    <attribute name="home_type" class="java.lang.String">4</attribute>
    <attribute name="employment_status" class="java.lang.Integer">0</attribute>
    </attributes>
    <plan selected="yes">
      <activity type="home" link="f0" x="200000.0" y="100000.0" end_time="08:00:00"/>
      <leg mode="car">
        <route type="links" start_link="f0" end_link="f19" trav_time="00:35:59" distance="60000.0">f0 f1 f2 f3 f4 f5 f6 f7 f8 f9 f10 f11 f12 f13 f14 f15 f16 f17 f18 f19</route>
      </leg>
      <activity type="work" link="f19" x="260000.0" y="100000.0" end_time="17:00:00"/>
      <leg mode="car">
        <route type="links" start_link="f19" end_link="b19" trav_time="00:35:59" distance="60000.0">b0 b1 b2 b3 b4 b5 b6 b7 b8 b9 b10 b11 b12 b13 b14 b15 b16 b17 b18 b19</route>
      </leg>
      <activity type="home" link="f0" x="200000.0" y="100000.0"/>
    </plan>
  </person>
  <person id="mf_apt_3">
    <attributes>
    <attribute name="betaMoney" class="java.lang.Double">-8.8235</attribute>
    <attribute name="riskAttitude" class="java.lang.String">seeking</attribute>
    <attribute name="rangeAnxietyThreshold" class="java.lang.Double">0.15</attribute>
    <attribute name="hh_income_detailed" class="java.lang.Integer">4</attribute>
    <attribute name="home_type" class="java.lang.String">4</attribute>
    <attribute name="employment_status" class="java.lang.Integer">0</attribute>
    </attributes>
    <plan selected="yes">
      <activity type="home" link="f0" x="200000.0" y="100000.0" end_time="08:00:00"/>
      <leg mode="car">