<?xml version="1.0" encoding="UTF-8"?>
<!DOCTYPE network SYSTEM "http://www.matsim.org/files/dtd/network_v1.dtd">
<network name="UrbanEV integration test corridor">
  <nodes>
    <node id="n0" x="200000.0" y="100000.0"/>
    <node id="n1" x="203000.0" y="100000.0"/>
    <node id="n2" x="206000.0" y="100000.0"/>
    <node id="n3" x="209000.0" y="100000.0"/>
    <node id="n4" x="212000.0" y="100000.0"/>
    <node id="n5" x="215000.0" y="100000.0"/>
    <node id="n6" x="218000.0" y="100000.0"/>
    <node id="n7" x="221000.0" y="100000.0"/>
    <node id="n8" x="224000.0" y="100000.0"/>
    <node id="n9" x="227000.0" y="100000.0"/>
    <node id="n10" x="230000.0" y="100000.0"/>
    <node id="n11" x="233000.0" y="100000.0"/>
    <node id="n12" x="236000.0" y="100000.0"/>
    <node id="n13" x="239000.0" y="100000.0"/>
    <node id="n14" x="242000.0" y="100000.0"/>
    <node id="n15" x="245000.0" y="100000.0"/>
    <node id="n16" x="248000.0" y="100000.0"/>
    <node id="n17" x="251000.0" y="100000.0"/>
    <node id="n18" x="254000.0" y="100000.0"/>
    <node id="n19" x="257000.0" y="100000.0"/>
    <node id="n20" x="260000.0" y="100000.0"/>
  </nodes>
  <links capperiod="01:00:00" effectivecellsize="7.5" effectivelanewidth="3.75">
    <link id="f0" from="n0" to="n1" length="3000" freespeed="27.78" capacity="1000" permlanes="1" oneway="1" modes="car"/>
    <link id="b0" from="n20" to="n19" length="3000" freespeed="27.78" capacity="1000" permlanes="1" oneway="1" modes="car"/>
    <link id="f1" from="n1" to="n2" length="3000" freespeed="27.78" capacity="1000" permlanes="1" oneway="1" modes="car"/>
    <link id="b1" from="n19" to="n18" length="3000" freespeed="27.78" capacity="1000" permlanes="1" oneway="1" modes="car"/>
    <link id="f2" from="n2" to="n3" length="3000" freespeed="27.78" capacity="1000" permlanes="1" oneway="1" modes="car"/>
    <link id="b2" from="n18" to="n17" length="3000" freespeed="27.78" capacity="1000" permlanes="1" oneway="1" modes="car"/>
    <link id="f3" from="n3" to="n4" length="3000" freespeed="27.78" capacity="1000" permlanes="1" oneway="1" modes="car"/>
    <link id="b3" from="n17" to="n16" length="3000" freespeed="27.78" capacity="1000" permlanes="1" oneway="1" modes="car"/>
    <link id="f4" from="n4" to="n5" length="3000" freespeed="27.78" capacity="1000" permlanes="1" oneway="1" modes="car"/>
    <link id="b4" from="n16" to="n15" length="3000" freespeed="27.78" capacity="1000" permlanes="1" oneway="1" modes="car"/>
    <link id="f5" from="n5" to="n6" length="3000" freespeed="27.78" capacity="1000" permlanes="1" oneway="1" modes="car"/>
    <link id="b5" from="n15" to="n14" length="3000" freespeed="27.78" capacity="1000" permlanes="1" oneway="1" modes="car"/>
    <link id="f6" from="n6" to="n7" length="3000" freespeed="27.78" capacity="1000" permlanes="1" oneway="1" modes="car"/>
    <link id="b6" from="n14" to="n13" length="3000" freespeed="27.78" capacity="1000" permlanes="1" oneway="1" modes="car"/>
    <link id="f7" from="n7" to="n8" length="3000" freespeed="27.78" capacity="1000" permlanes="1" oneway="1" modes="car"/>
    <link id="b7" from="n13" to="n12" length="3000" freespeed="27.78" capacity="1000" permlanes="1" oneway="1" modes="car"/>
    <link id="f8" from="n8" to="n9" length="3000" freespeed="27.78" capacity="1000" permlanes="1" oneway="1" modes="car"/>
    <link id="b8" from="n12" to="n11" length="3000" freespeed="27.78" capacity="1000" permlanes="1" oneway="1" modes="car"/>
    <link id="f9" from="n9" to="n10" length="3000" freespeed="27.78" capacity="1000" permlanes="1" oneway="1" modes="car"/>
    <link id="b9" from="n11" to="n10" length="3000" freespeed="27.78" capacity="1000" permlanes="1" oneway="1" modes="car"/>
    <link id="f10" from="n10" to="n11" length="3000" freespeed="27.78" capacity="1000" permlanes="1" oneway="1" modes="car"/>
    <link id="b10" from="n10" to="n9" length="3000" freespeed="27.78" capacity="1000" permlanes="1" oneway="1" modes="car"/>
    <link id="f11" from="n11" to="n12" length="3000" freespeed="27.78" capacity="1000" permlanes="1" oneway="1" modes="car"/>
    <link id="b11" from="n9" to="n8" length="3000" freespeed="27.78" capacity="1000" permlanes="1" oneway="1" modes="car"/>
    <link id="f12" from="n12" to="n13" length="3000" freespeed="27.78" capacity="1000" permlanes="1" oneway="1" modes="car"/>
    <link id="b12" from="n8" to="n7" length="3000" freespeed="27.78" capacity="1000" permlanes="1" oneway="1" modes="car"/>
    <link id="f13" from="n13" to="n14" length="3000" freespeed="27.78" capacity="1000" permlanes="1" oneway="1" modes="car"/>
    <link id="b13" from="n7" to="n6" length="3000" freespeed="27.78" capacity="1000" permlanes="1" oneway="1" modes="car"/>
    <link id="f14" from="n14" to="n15" length="3000" freespeed="27.78" capacity="1000" permlanes="1" oneway="1" modes="car"/>
    <link id="b14" from="n6" to="n5" length="3000" freespeed="27.78" capacity="1000" permlanes="1" oneway="1" modes="car"/>
    <link id="f15" from="n15" to="n16" length="3000" freespeed="27.78" capacity="1000" permlanes="1" oneway="1" modes="car"/>
    <link id="b15" from="n5" to="n4" length="3000" freespeed="27.78" capacity="1000" permlanes="1" oneway="1" modes="car"/>
    <link id="f16" from="n16" to="n17" length="3000" freespeed="27.78" capacity="1000" permlanes="1" oneway="1" modes="car"/>
    <link id="b16" from="n4" to="n3" length="3000" freespeed="27.78" capacity="1000" permlanes="1" oneway="1" modes="car"/>
    <link id="f17" from="n17" to="n18" length="3000" freespeed="27.78" capacity="1000" permlanes="1" oneway="1" modes="car"/>
    <link id="b17" from="n3" to="n2" length="3000" freespeed="27.78" capacity="1000" permlanes="1" oneway="1" modes="car"/>
    <link id="f18" from="n18" to="n19" length="3000" freespeed="27.78" capacity="1000" permlanes="1" oneway="1" modes="car"/>
    <link id="b18" from="n2" to="n1" length="3000" freespeed="27.78" capacity="1000" permlanes="1" oneway="1" modes="car"/>
    <link id="f19" from="n19" to="n20" length="3000" freespeed="27.78" capacity="1000" permlanes="1" oneway="1" modes="car"/>
    <link id="b19" from="n1" to="n0" length="3000" freespeed="27.78" capacity="1000" permlanes="1" oneway="1" modes="car"/>
  </links>
</network>
